Version 4
SHEET 1 1204 680
WIRE -144 -144 -400 -144
WIRE -64 -144 -144 -144
WIRE 304 -144 -64 -144
WIRE 528 -144 304 -144
WIRE -144 -80 -144 -144
WIRE -64 -80 -64 -144
WIRE 304 -48 304 -144
WIRE 272 -32 96 -32
WIRE -400 0 -400 -144
WIRE 272 0 208 0
WIRE -64 16 -64 0
WIRE 96 16 96 -32
WIRE 96 16 -64 16
WIRE 208 16 208 0
WIRE 1008 48 448 48
WIRE -144 80 -144 0
WIRE 96 80 -144 80
WIRE 528 80 528 -144
WIRE -144 96 -144 80
WIRE -64 96 -64 16
WIRE 272 96 208 96
WIRE 96 128 96 80
WIRE 272 128 96 128
WIRE 384 160 384 112
WIRE 528 160 384 160
WIRE 384 176 384 160
WIRE -400 240 -400 80
WIRE -144 240 -144 176
WIRE -144 240 -400 240
WIRE -64 240 -64 176
WIRE -64 240 -144 240
WIRE 304 240 304 144
WIRE 304 240 -64 240
WIRE -144 288 -144 240
WIRE 304 304 304 240
WIRE 384 304 384 256
WIRE 384 304 304 304
FLAG -144 288 0
FLAG 96 -32 Vo
FLAG 1008 192 0
SYMBOL res -80 -96 R0
SYMATTR InstName R1
SYMATTR Value {150-R1}
SYMATTR SpiceLine tol=0
SYMBOL res -80 80 R0
SYMATTR InstName R2
SYMATTR Value {150+R1}
SYMATTR SpiceLine tol=0
SYMBOL res -128 -96 M0
SYMATTR InstName R3
SYMATTR Value 150
SYMATTR SpiceLine tol=0
SYMBOL res -128 80 M0
SYMATTR InstName R4
SYMATTR Value 150
SYMATTR SpiceLine tol=0
SYMBOL voltage -400 -16 R0
WINDOW 123 0 0 Left 2
WINDOW 39 0 0 Left 2
SYMATTR InstName V1
SYMATTR Value 3.3
SYMBOL Opamps\\LT1789-1 304 48 R0
SYMATTR InstName U1
SYMBOL res 192 0 R0
SYMATTR InstName R5
SYMATTR Value 5K
SYMBOL res 512 64 R0
SYMATTR InstName R6
SYMATTR Value 120
SYMBOL res 368 160 R0
SYMATTR InstName R7
SYMATTR Value 120
SYMBOL cap 992 48 R0
SYMATTR InstName C1
SYMATTR Value 40pF
SYMBOL current 1008 112 R0
WINDOW 123 0 0 Left 2
WINDOW 39 0 0 Left 2
SYMATTR InstName I1
SYMATTR Value 1nA
TEXT -360 -224 Left 2 !.step param R1 -2 2 1
TEXT -432 312 Left 2 !.op
